*SPEF "ieee 1481-1999"
*DESIGN "my_design"
*DATE "20:25:04 Wednesday June 10, 2026"
*VENDOR "The OpenROAD Project"
*PROGRAM "OpenROAD"
*VERSION "dcf36133a369abc8f3c5e5738cd4d82e4903c0e0"
*DESIGN_FLOW "NAME_SCOPE LOCAL" "PIN_CAP NONE"
*DIVIDER /
*DELIMITER :
*BUS_DELIMITER []
*T_UNIT 1 NS
*C_UNIT 1 PF
*R_UNIT 1 OHM
*L_UNIT 1 HENRY

*NAME_MAP
*3 clk
*4 in
*5 out
*6 rst
*7 _0_
*8 net1
*9 net2
*10 net3
*11 FILLER_0_12
*12 FILLER_0_15
*13 FILLER_0_18
*14 FILLER_0_21
*15 FILLER_0_24
*16 FILLER_0_27
*17 FILLER_0_29
*18 FILLER_0_3
*19 FILLER_0_32
*20 FILLER_0_41
*21 FILLER_0_44
*22 FILLER_0_47
*23 FILLER_0_50
*24 FILLER_0_53
*25 FILLER_0_57
*26 FILLER_0_6
*27 FILLER_0_60
*28 FILLER_0_9
*29 FILLER_1_12
*30 FILLER_1_15
*31 FILLER_1_18
*32 FILLER_1_21
*33 FILLER_1_24
*34 FILLER_1_27
*35 FILLER_1_3
*36 FILLER_1_30
*37 FILLER_1_33
*38 FILLER_1_36
*39 FILLER_1_39
*40 FILLER_1_42
*41 FILLER_1_45
*42 FILLER_1_48
*43 FILLER_1_51
*44 FILLER_1_54
*45 FILLER_1_57
*46 FILLER_1_6
*47 FILLER_1_60
*48 FILLER_1_9
*49 FILLER_2_12
*50 FILLER_2_15
*51 FILLER_2_18
*52 FILLER_2_21
*53 FILLER_2_24
*54 FILLER_2_27
*55 FILLER_2_29
*56 FILLER_2_3
*57 FILLER_2_32
*58 FILLER_2_35
*59 FILLER_2_38
*60 FILLER_2_41
*61 FILLER_2_44
*62 FILLER_2_47
*63 FILLER_2_50
*64 FILLER_2_53
*65 FILLER_2_56
*66 FILLER_2_59
*67 FILLER_2_6
*68 FILLER_2_9
*69 FILLER_3_12
*70 FILLER_3_15
*71 FILLER_3_18
*72 FILLER_3_21
*73 FILLER_3_24
*74 FILLER_3_27
*75 FILLER_3_3
*76 FILLER_3_32
*77 FILLER_3_35
*78 FILLER_3_38
*79 FILLER_3_41
*80 FILLER_3_44
*81 FILLER_3_47
*82 FILLER_3_50
*83 FILLER_3_53
*84 FILLER_3_57
*85 FILLER_3_6
*86 FILLER_3_60
*87 FILLER_3_9
*88 FILLER_4_12
*89 FILLER_4_15
*90 FILLER_4_18
*91 FILLER_4_21
*92 FILLER_4_24
*93 FILLER_4_27
*94 FILLER_4_29
*95 FILLER_4_3
*96 FILLER_4_32
*97 FILLER_4_35
*98 FILLER_4_38
*99 FILLER_4_41
*100 FILLER_4_44
*101 FILLER_4_47
*102 FILLER_4_50
*103 FILLER_4_53
*104 FILLER_4_56
*105 FILLER_4_59
*106 FILLER_4_6
*107 FILLER_4_9
*108 FILLER_5_12
*109 FILLER_5_3
*110 FILLER_5_34
*111 FILLER_5_37
*112 FILLER_5_40
*113 FILLER_5_43
*114 FILLER_5_46
*115 FILLER_5_57
*116 FILLER_5_6
*117 FILLER_5_60
*118 FILLER_5_9
*119 FILLER_6_11
*120 FILLER_6_14
*121 FILLER_6_17
*122 FILLER_6_20
*123 FILLER_6_23
*124 FILLER_6_26
*125 FILLER_6_29
*126 FILLER_6_32
*127 FILLER_6_35
*128 FILLER_6_38
*129 FILLER_6_41
*130 FILLER_6_44
*131 FILLER_6_47
*132 FILLER_6_50
*133 FILLER_6_53
*134 FILLER_6_56
*135 FILLER_6_59
*136 FILLER_7_12
*137 FILLER_7_15
*138 FILLER_7_18
*139 FILLER_7_21
*140 FILLER_7_24
*141 FILLER_7_27
*142 FILLER_7_3
*143 FILLER_7_30
*144 FILLER_7_33
*145 FILLER_7_36
*146 FILLER_7_39
*147 FILLER_7_42
*148 FILLER_7_45
*149 FILLER_7_48
*150 FILLER_7_51
*151 FILLER_7_54
*152 FILLER_7_57
*153 FILLER_7_6
*154 FILLER_7_60
*155 FILLER_7_9
*156 FILLER_8_12
*157 FILLER_8_15
*158 FILLER_8_18
*159 FILLER_8_21
*160 FILLER_8_24
*161 FILLER_8_27
*162 FILLER_8_29
*163 FILLER_8_3
*164 FILLER_8_32
*165 FILLER_8_35
*166 FILLER_8_38
*167 FILLER_8_41
*168 FILLER_8_44
*169 FILLER_8_47
*170 FILLER_8_50
*171 FILLER_8_53
*172 FILLER_8_56
*173 FILLER_8_59
*174 FILLER_8_6
*175 FILLER_8_9
*176 FILLER_9_12
*177 FILLER_9_15
*178 FILLER_9_18
*179 FILLER_9_21
*180 FILLER_9_24
*181 FILLER_9_27
*182 FILLER_9_29
*183 FILLER_9_3
*184 FILLER_9_32
*185 FILLER_9_35
*186 FILLER_9_38
*187 FILLER_9_41
*188 FILLER_9_44
*189 FILLER_9_47
*190 FILLER_9_50
*191 FILLER_9_53
*192 FILLER_9_57
*193 FILLER_9_6
*194 FILLER_9_60
*195 FILLER_9_9
*196 PHY_EDGE_ROW_0_Left_10
*197 PHY_EDGE_ROW_0_Right_0
*198 PHY_EDGE_ROW_1_Left_11
*199 PHY_EDGE_ROW_1_Right_1
*200 PHY_EDGE_ROW_2_Left_12
*201 PHY_EDGE_ROW_2_Right_2
*202 PHY_EDGE_ROW_3_Left_13
*203 PHY_EDGE_ROW_3_Right_3
*204 PHY_EDGE_ROW_4_Left_14
*205 PHY_EDGE_ROW_4_Right_4
*206 PHY_EDGE_ROW_5_Left_15
*207 PHY_EDGE_ROW_5_Right_5
*208 PHY_EDGE_ROW_6_Left_16
*209 PHY_EDGE_ROW_6_Right_6
*210 PHY_EDGE_ROW_7_Left_17
*211 PHY_EDGE_ROW_7_Right_7
*212 PHY_EDGE_ROW_8_Left_18
*213 PHY_EDGE_ROW_8_Right_8
*214 PHY_EDGE_ROW_9_Left_19
*215 PHY_EDGE_ROW_9_Right_9
*216 TAP_TAPCELL_ROW_0_20
*217 TAP_TAPCELL_ROW_0_21
*218 TAP_TAPCELL_ROW_1_22
*219 TAP_TAPCELL_ROW_2_23
*220 TAP_TAPCELL_ROW_3_24
*221 TAP_TAPCELL_ROW_4_25
*222 TAP_TAPCELL_ROW_5_26
*223 TAP_TAPCELL_ROW_6_27
*224 TAP_TAPCELL_ROW_7_28
*225 TAP_TAPCELL_ROW_8_29
*226 TAP_TAPCELL_ROW_9_30
*227 TAP_TAPCELL_ROW_9_31
*228 _1_
*229 _2_
*230 input1
*231 input2
*232 output3

*PORTS
clk I
in I
out O
rst I

*D_NET *3 0.00214668
*CONN
*P clk I
*I *229:CLK I *D sky130_fd_sc_hd__dfrtp_2
*CAP
1 clk 0.000761494
2 *229:CLK 0
3 *3:11 0.000761494
4 *3:11 *4:11 0.000623691
*RES
1 clk *3:11 27.0456 
2 *3:11 *229:CLK 23 
*END

*D_NET *4 0.00166967
*CONN
*P in I
*I *230:A I *D sky130_fd_sc_hd__clkdlybuf4s25_1
*CAP
1 in 0.000522988
2 *230:A 0
3 *4:11 0.000522988
4 *4:11 *8:8 0
5 *3:11 *4:11 0.000623691
*RES
1 in *4:11 27.5955 
2 *4:11 *230:A 23 
*END

*D_NET *5 0.00156212
*CONN
*P out O
*I *232:X O *D sky130_fd_sc_hd__clkdlybuf4s25_1
*CAP
1 out 0.000781058
2 *232:X 0.000781058
*RES
1 *232:X out 48.9717 
*END

*D_NET *6 0.00123063
*CONN
*P rst I
*I *231:A I *D sky130_fd_sc_hd__clkdlybuf4s25_1
*CAP
1 rst 0.000615315
2 *231:A 0
3 *6:9 0.000615315
*RES
1 rst *6:9 28.05 
2 *6:9 *231:A 23 
*END

*D_NET *7 0.000701861
*CONN
*I *229:RESET_B I *D sky130_fd_sc_hd__dfrtp_2
*I *228:Y O *D sky130_fd_sc_hd__inv_2
*CAP
1 *229:RESET_B 4.05846e-05
2 *228:Y 0.000310346
3 *7:8 0.00035093
4 *7:8 *9:8 0
*RES
1 *228:Y *7:8 44.1314 
2 *7:8 *229:RESET_B 15.5489 
*END

*D_NET *8 0.000533433
*CONN
*I *229:D I *D sky130_fd_sc_hd__dfrtp_2
*I *230:X O *D sky130_fd_sc_hd__clkdlybuf4s25_1
*CAP
1 *229:D 0.000175657
2 *230:X 9.106e-05
3 *8:8 0.000266717
4 *4:11 *8:8 0
*RES
1 *230:X *8:8 39.5536 
2 *8:8 *229:D 41.0036 
*END

*D_NET *9 0.00139845
*CONN
*I *228:A I *D sky130_fd_sc_hd__inv_2
*I *231:X O *D sky130_fd_sc_hd__clkdlybuf4s25_1
*CAP
1 *228:A 0.00028324
2 *231:X 0.000415988
3 *9:8 0.000699227
4 *7:8 *9:8 0
*RES
1 *231:X *9:8 45.8921 
2 *9:8 *228:A 42.4329 
*END

*D_NET *10 0.00093361
*CONN
*I *232:A I *D sky130_fd_sc_hd__clkdlybuf4s25_1
*I *229:Q O *D sky130_fd_sc_hd__dfrtp_2
*CAP
1 *232:A 0
2 *229:Q 0.000466805
3 *10:8 0.000466805
*RES
1 *229:Q *10:8 31.265 
2 *10:8 *232:A 23 
*END
